[root]
type=Root
children=system
eventq_index=0
full_system=false
sim_quantum=0
time_sync_enable=false
time_sync_period=100000000000
time_sync_spin_threshold=100000000

[system]
type=System
children=axibus clk_domain cpu dvfs_handler fpga l2bus l2cache mem_ctrl membus
boot_osflags=a
cache_line_size=64
clk_domain=system.clk_domain
default_p_state=UNDEFINED
eventq_index=0
exit_on_work_items=false
init_param=0
kernel=
kernel_addr_check=true
load_addr_mask=1099511627775
load_offset=0
mem_mode=timing
mem_ranges=0:536870911:0:0:0:0
memories=system.mem_ctrl
mmap_using_noreserve=false
multi_thread=false
num_work_ids=16
p_state_clk_gate_bins=20
p_state_clk_gate_max=1000000000000
p_state_clk_gate_min=1000
power_model=Null
readfile=
symbolfile=
thermal_components=
thermal_model=Null
work_begin_ckpt_count=0
work_begin_cpu_id_exit=-1
work_begin_exit_count=0
work_cpus_ckpt_count=0
work_end_ckpt_count=0
work_end_exit_count=0
work_item_id=-1
system_port=system.membus.slave[3]

[system.axibus]
type=CoherentXBar
children=clk_domain snoop_filter
clk_domain=system.axibus.clk_domain
default_p_state=UNDEFINED
disenable_snoopFilter=0
eventq_index=0
forward_latency=1
frontend_latency=1
p_state_clk_gate_bins=20
p_state_clk_gate_max=1000000000000
p_state_clk_gate_min=1000
point_of_coherency=false
power_model=Null
response_latency=1
snoop_filter=system.axibus.snoop_filter
snoop_response_latency=1
system=system
use_default_range=false
width=4
master=system.membus.slave[1]
slave=system.fpga.icache_port system.fpga.dcache_port system.fpga.dma

[system.axibus.clk_domain]
type=SrcClockDomain
children=voltage_domain
clock=6667
domain_id=-1
eventq_index=0
init_perf_level=0
voltage_domain=system.axibus.clk_domain.voltage_domain

[system.axibus.clk_domain.voltage_domain]
type=VoltageDomain
eventq_index=0
voltage=1.000000

[system.axibus.snoop_filter]
type=SnoopFilter
eventq_index=0
lookup_latency=0
max_capacity=33554432
system=system

[system.clk_domain]
type=SrcClockDomain
children=voltage_domain
clock=376
domain_id=-1
eventq_index=0
init_perf_level=0
voltage_domain=system.clk_domain.voltage_domain

[system.clk_domain.voltage_domain]
type=VoltageDomain
eventq_index=0
voltage=1.000000

[system.cpu]
type=DerivO3CPU
children=apic_clk_domain branchPred dcache dtb fuPool icache interrupts isa itb tracer workload
LFSTSize=1024
LQEntries=32
LSQCheckLoads=true
LSQDepCheckShift=4
SQEntries=32
SSITSize=1024
activity=0
backComSize=5
baseaddress_control_fpga=3221225472
branchPred=system.cpu.branchPred
cachePorts=200
checker=Null
clk_domain=system.clk_domain
commitToDecodeDelay=1
commitToFetchDelay=1
commitToIEWDelay=1
commitToRenameDelay=1
commitWidth=8
cpu_id=-1
decodeToFetchDelay=1
decodeToRenameDelay=1
decodeWidth=8
default_p_state=UNDEFINED
dispatchWidth=8
do_checkpoint_insts=true
do_quiesce=true
do_statistics_insts=true
dtb=system.cpu.dtb
eventq_index=0
fetchBufferSize=64
fetchQueueSize=32
fetchToDecodeDelay=1
fetchTrapLatency=1
fetchWidth=8
forwardComSize=5
fpga=false
fpga_bus_addr=1073741824
fuPool=system.cpu.fuPool
function_trace=false
function_trace_start=0
iewToCommitDelay=1
iewToDecodeDelay=1
iewToFetchDelay=1
iewToRenameDelay=1
interrupts=system.cpu.interrupts
isa=system.cpu.isa
issueToExecuteDelay=1
issueWidth=8
itb=system.cpu.itb
max_insts_all_threads=0
max_insts_any_thread=0
max_loads_all_threads=0
max_loads_any_thread=0
needsTSO=true
numIQEntries=64
numPhysCCRegs=1280
numPhysFloatRegs=256
numPhysIntRegs=256
numROBEntries=192
numRobs=1
numThreads=1
num_input_fpga=13
num_output_fpga=15
p_state_clk_gate_bins=20
p_state_clk_gate_max=1000000000000
p_state_clk_gate_min=1000
power_model=Null
profile=0
progress_interval=0
renameToDecodeDelay=1
renameToFetchDelay=1
renameToIEWDelay=2
renameToROBDelay=1
renameWidth=8
simpoint_start_insts=
size_control_fpga=4096
smtCommitPolicy=RoundRobin
smtFetchPolicy=SingleThread
smtIQPolicy=Partitioned
smtIQThreshold=100
smtLSQPolicy=Partitioned
smtLSQThreshold=100
smtNumFetchingThreads=1
smtROBPolicy=Partitioned
smtROBThreshold=100
socket_id=0
squashWidth=8
store_set_clear_period=250000
switched_out=false
system=system
tracer=system.cpu.tracer
trapLatency=13
wbWidth=8
workload=system.cpu.workload
dcache_port=system.cpu.dcache.cpu_side
icache_port=system.cpu.icache.cpu_side

[system.cpu.apic_clk_domain]
type=DerivedClockDomain
clk_divider=16
clk_domain=system.clk_domain
eventq_index=0

[system.cpu.branchPred]
type=TournamentBP
BTBEntries=4096
BTBTagSize=16
RASSize=16
choiceCtrBits=2
choicePredictorSize=8192
eventq_index=0
globalCtrBits=2
globalPredictorSize=8192
indirectHashGHR=true
indirectHashTargets=true
indirectPathLength=3
indirectSets=256
indirectTagSize=16
indirectWays=2
instShiftAmt=2
localCtrBits=2
localHistoryTableSize=2048
localPredictorSize=2048
numThreads=1
useIndirect=true

[system.cpu.dcache]
type=Cache
children=tags
addr_ranges=0:2147483647:0:0:0:0
assoc=8
clk_domain=system.clk_domain
clusivity=mostly_incl
default_p_state=UNDEFINED
demand_mshr_reserve=1
disable=0
eventq_index=0
hit_latency=4
io_bypass=1
io_bypass_head=3221225472
io_bypass_tail=3221229568
is_read_only=false
max_miss_count=0
mshrs=4
p_state_clk_gate_bins=20
p_state_clk_gate_max=1000000000000
p_state_clk_gate_min=1000
power_model=Null
prefetch_on_access=false
prefetcher=Null
response_latency=4
sequential_access=false
size=32768
system=system
tags=system.cpu.dcache.tags
tgts_per_mshr=20
write_buffers=8
writeback_clean=false
cpu_side=system.cpu.dcache_port
mem_side=system.l2bus.slave[1]

[system.cpu.dcache.tags]
type=LRU
assoc=8
block_size=64
clk_domain=system.clk_domain
default_p_state=UNDEFINED
eventq_index=0
hit_latency=4
p_state_clk_gate_bins=20
p_state_clk_gate_max=1000000000000
p_state_clk_gate_min=1000
power_model=Null
sequential_access=false
size=32768

[system.cpu.dtb]
type=X86TLB
children=walker
baseaddress_control_fpga=3221225472
eventq_index=0
fpga_bus_addr=281470681743360
size=64
size_control_fpga=4096
walker=system.cpu.dtb.walker

[system.cpu.dtb.walker]
type=X86PagetableWalker
clk_domain=system.clk_domain
default_p_state=UNDEFINED
eventq_index=0
num_squash_per_cycle=4
p_state_clk_gate_bins=20
p_state_clk_gate_max=1000000000000
p_state_clk_gate_min=1000
power_model=Null
system=system

[system.cpu.fuPool]
type=FUPool
children=FUList0 FUList1 FUList2 FUList3 FUList4 FUList5 FUList6 FUList7 FUList8
FUList=system.cpu.fuPool.FUList0 system.cpu.fuPool.FUList1 system.cpu.fuPool.FUList2 system.cpu.fuPool.FUList3 system.cpu.fuPool.FUList4 system.cpu.fuPool.FUList5 system.cpu.fuPool.FUList6 system.cpu.fuPool.FUList7 system.cpu.fuPool.FUList8
eventq_index=0

[system.cpu.fuPool.FUList0]
type=FUDesc
children=opList
count=6
eventq_index=0
opList=system.cpu.fuPool.FUList0.opList

[system.cpu.fuPool.FUList0.opList]
type=OpDesc
eventq_index=0
opClass=IntAlu
opLat=1
pipelined=true

[system.cpu.fuPool.FUList1]
type=FUDesc
children=opList0 opList1
count=2
eventq_index=0
opList=system.cpu.fuPool.FUList1.opList0 system.cpu.fuPool.FUList1.opList1

[system.cpu.fuPool.FUList1.opList0]
type=OpDesc
eventq_index=0
opClass=IntMult
opLat=3
pipelined=true

[system.cpu.fuPool.FUList1.opList1]
type=OpDesc
eventq_index=0
opClass=IntDiv
opLat=1
pipelined=false

[system.cpu.fuPool.FUList2]
type=FUDesc
children=opList0 opList1 opList2
count=4
eventq_index=0
opList=system.cpu.fuPool.FUList2.opList0 system.cpu.fuPool.FUList2.opList1 system.cpu.fuPool.FUList2.opList2

[system.cpu.fuPool.FUList2.opList0]
type=OpDesc
eventq_index=0
opClass=FloatAdd
opLat=2
pipelined=true

[system.cpu.fuPool.FUList2.opList1]
type=OpDesc
eventq_index=0
opClass=FloatCmp
opLat=2
pipelined=true

[system.cpu.fuPool.FUList2.opList2]
type=OpDesc
eventq_index=0
opClass=FloatCvt
opLat=2
pipelined=true

[system.cpu.fuPool.FUList3]
type=FUDesc
children=opList0 opList1 opList2 opList3 opList4
count=2
eventq_index=0
opList=system.cpu.fuPool.FUList3.opList0 system.cpu.fuPool.FUList3.opList1 system.cpu.fuPool.FUList3.opList2 system.cpu.fuPool.FUList3.opList3 system.cpu.fuPool.FUList3.opList4

[system.cpu.fuPool.FUList3.opList0]
type=OpDesc
eventq_index=0
opClass=FloatMult
opLat=4
pipelined=true

[system.cpu.fuPool.FUList3.opList1]
type=OpDesc
eventq_index=0
opClass=FloatMultAcc
opLat=5
pipelined=true

[system.cpu.fuPool.FUList3.opList2]
type=OpDesc
eventq_index=0
opClass=FloatMisc
opLat=3
pipelined=true

[system.cpu.fuPool.FUList3.opList3]
type=OpDesc
eventq_index=0
opClass=FloatDiv
opLat=12
pipelined=false

[system.cpu.fuPool.FUList3.opList4]
type=OpDesc
eventq_index=0
opClass=FloatSqrt
opLat=24
pipelined=false

[system.cpu.fuPool.FUList4]
type=FUDesc
children=opList0 opList1
count=0
eventq_index=0
opList=system.cpu.fuPool.FUList4.opList0 system.cpu.fuPool.FUList4.opList1

[system.cpu.fuPool.FUList4.opList0]
type=OpDesc
eventq_index=0
opClass=MemRead
opLat=1
pipelined=true

[system.cpu.fuPool.FUList4.opList1]
type=OpDesc
eventq_index=0
opClass=FloatMemRead
opLat=1
pipelined=true

[system.cpu.fuPool.FUList5]
type=FUDesc
children=opList00 opList01 opList02 opList03 opList04 opList05 opList06 opList07 opList08 opList09 opList10 opList11 opList12 opList13 opList14 opList15 opList16 opList17 opList18 opList19
count=4
eventq_index=0
opList=system.cpu.fuPool.FUList5.opList00 system.cpu.fuPool.FUList5.opList01 system.cpu.fuPool.FUList5.opList02 system.cpu.fuPool.FUList5.opList03 system.cpu.fuPool.FUList5.opList04 system.cpu.fuPool.FUList5.opList05 system.cpu.fuPool.FUList5.opList06 system.cpu.fuPool.FUList5.opList07 system.cpu.fuPool.FUList5.opList08 system.cpu.fuPool.FUList5.opList09 system.cpu.fuPool.FUList5.opList10 system.cpu.fuPool.FUList5.opList11 system.cpu.fuPool.FUList5.opList12 system.cpu.fuPool.FUList5.opList13 system.cpu.fuPool.FUList5.opList14 system.cpu.fuPool.FUList5.opList15 system.cpu.fuPool.FUList5.opList16 system.cpu.fuPool.FUList5.opList17 system.cpu.fuPool.FUList5.opList18 system.cpu.fuPool.FUList5.opList19

[system.cpu.fuPool.FUList5.opList00]
type=OpDesc
eventq_index=0
opClass=SimdAdd
opLat=1
pipelined=true

[system.cpu.fuPool.FUList5.opList01]
type=OpDesc
eventq_index=0
opClass=SimdAddAcc
opLat=1
pipelined=true

[system.cpu.fuPool.FUList5.opList02]
type=OpDesc
eventq_index=0
opClass=SimdAlu
opLat=1
pipelined=true

[system.cpu.fuPool.FUList5.opList03]
type=OpDesc
eventq_index=0
opClass=SimdCmp
opLat=1
pipelined=true

[system.cpu.fuPool.FUList5.opList04]
type=OpDesc
eventq_index=0
opClass=SimdCvt
opLat=1
pipelined=true

[system.cpu.fuPool.FUList5.opList05]
type=OpDesc
eventq_index=0
opClass=SimdMisc
opLat=1
pipelined=true

[system.cpu.fuPool.FUList5.opList06]
type=OpDesc
eventq_index=0
opClass=SimdMult
opLat=1
pipelined=true

[system.cpu.fuPool.FUList5.opList07]
type=OpDesc
eventq_index=0
opClass=SimdMultAcc
opLat=1
pipelined=true

[system.cpu.fuPool.FUList5.opList08]
type=OpDesc
eventq_index=0
opClass=SimdShift
opLat=1
pipelined=true

[system.cpu.fuPool.FUList5.opList09]
type=OpDesc
eventq_index=0
opClass=SimdShiftAcc
opLat=1
pipelined=true

[system.cpu.fuPool.FUList5.opList10]
type=OpDesc
eventq_index=0
opClass=SimdSqrt
opLat=1
pipelined=true

[system.cpu.fuPool.FUList5.opList11]
type=OpDesc
eventq_index=0
opClass=SimdFloatAdd
opLat=1
pipelined=true

[system.cpu.fuPool.FUList5.opList12]
type=OpDesc
eventq_index=0
opClass=SimdFloatAlu
opLat=1
pipelined=true

[system.cpu.fuPool.FUList5.opList13]
type=OpDesc
eventq_index=0
opClass=SimdFloatCmp
opLat=1
pipelined=true

[system.cpu.fuPool.FUList5.opList14]
type=OpDesc
eventq_index=0
opClass=SimdFloatCvt
opLat=1
pipelined=true

[system.cpu.fuPool.FUList5.opList15]
type=OpDesc
eventq_index=0
opClass=SimdFloatDiv
opLat=1
pipelined=true

[system.cpu.fuPool.FUList5.opList16]
type=OpDesc
eventq_index=0
opClass=SimdFloatMisc
opLat=1
pipelined=true

[system.cpu.fuPool.FUList5.opList17]
type=OpDesc
eventq_index=0
opClass=SimdFloatMult
opLat=1
pipelined=true

[system.cpu.fuPool.FUList5.opList18]
type=OpDesc
eventq_index=0
opClass=SimdFloatMultAcc
opLat=1
pipelined=true

[system.cpu.fuPool.FUList5.opList19]
type=OpDesc
eventq_index=0
opClass=SimdFloatSqrt
opLat=1
pipelined=true

[system.cpu.fuPool.FUList6]
type=FUDesc
children=opList0 opList1
count=0
eventq_index=0
opList=system.cpu.fuPool.FUList6.opList0 system.cpu.fuPool.FUList6.opList1

[system.cpu.fuPool.FUList6.opList0]
type=OpDesc
eventq_index=0
opClass=MemWrite
opLat=1
pipelined=true

[system.cpu.fuPool.FUList6.opList1]
type=OpDesc
eventq_index=0
opClass=FloatMemWrite
opLat=1
pipelined=true

[system.cpu.fuPool.FUList7]
type=FUDesc
children=opList0 opList1 opList2 opList3
count=4
eventq_index=0
opList=system.cpu.fuPool.FUList7.opList0 system.cpu.fuPool.FUList7.opList1 system.cpu.fuPool.FUList7.opList2 system.cpu.fuPool.FUList7.opList3

[system.cpu.fuPool.FUList7.opList0]
type=OpDesc
eventq_index=0
opClass=MemRead
opLat=1
pipelined=true

[system.cpu.fuPool.FUList7.opList1]
type=OpDesc
eventq_index=0
opClass=MemWrite
opLat=1
pipelined=true

[system.cpu.fuPool.FUList7.opList2]
type=OpDesc
eventq_index=0
opClass=FloatMemRead
opLat=1
pipelined=true

[system.cpu.fuPool.FUList7.opList3]
type=OpDesc
eventq_index=0
opClass=FloatMemWrite
opLat=1
pipelined=true

[system.cpu.fuPool.FUList8]
type=FUDesc
children=opList
count=1
eventq_index=0
opList=system.cpu.fuPool.FUList8.opList

[system.cpu.fuPool.FUList8.opList]
type=OpDesc
eventq_index=0
opClass=IprAccess
opLat=3
pipelined=false

[system.cpu.icache]
type=Cache
children=tags
addr_ranges=0:2147483647:0:0:0:0
assoc=8
clk_domain=system.clk_domain
clusivity=mostly_incl
default_p_state=UNDEFINED
demand_mshr_reserve=1
disable=0
eventq_index=0
hit_latency=4
io_bypass=0
io_bypass_head=0
io_bypass_tail=0
is_read_only=false
max_miss_count=0
mshrs=4
p_state_clk_gate_bins=20
p_state_clk_gate_max=1000000000000
p_state_clk_gate_min=1000
power_model=Null
prefetch_on_access=false
prefetcher=Null
response_latency=4
sequential_access=false
size=32768
system=system
tags=system.cpu.icache.tags
tgts_per_mshr=20
write_buffers=8
writeback_clean=false
cpu_side=system.cpu.icache_port
mem_side=system.l2bus.slave[0]

[system.cpu.icache.tags]
type=LRU
assoc=8
block_size=64
clk_domain=system.clk_domain
default_p_state=UNDEFINED
eventq_index=0
hit_latency=4
p_state_clk_gate_bins=20
p_state_clk_gate_max=1000000000000
p_state_clk_gate_min=1000
power_model=Null
sequential_access=false
size=32768

[system.cpu.interrupts]
type=X86LocalApic
clk_domain=system.cpu.apic_clk_domain
default_p_state=UNDEFINED
eventq_index=0
int_latency=1000
p_state_clk_gate_bins=20
p_state_clk_gate_max=1000000000000
p_state_clk_gate_min=1000
pio_addr=2305843009213693952
pio_latency=100000
power_model=Null
system=system
int_master=system.membus.slave[2]
int_slave=system.membus.master[1]
pio=system.membus.master[0]

[system.cpu.isa]
type=X86ISA
eventq_index=0

[system.cpu.itb]
type=X86TLB
children=walker
baseaddress_control_fpga=3221225472
eventq_index=0
fpga_bus_addr=281470681743360
size=64
size_control_fpga=4096
walker=system.cpu.itb.walker

[system.cpu.itb.walker]
type=X86PagetableWalker
clk_domain=system.clk_domain
default_p_state=UNDEFINED
eventq_index=0
num_squash_per_cycle=4
p_state_clk_gate_bins=20
p_state_clk_gate_max=1000000000000
p_state_clk_gate_min=1000
power_model=Null
system=system

[system.cpu.tracer]
type=ExeTracer
eventq_index=0

[system.cpu.workload]
type=LiveProcess
cmd=tests/DMA/polybench-c-4.2/2mm-fpga
cwd=
drivers=
egid=100
env=
errout=cerr
euid=100
eventq_index=0
executable=
gid=100
input=cin
kvmInSE=false
max_stack_size=67108864
output=cout
pid=100
ppid=99
simpoint=0
system=system
uid=100
useArchPT=false

[system.dvfs_handler]
type=DVFSHandler
domains=
enable=false
eventq_index=0
sys_clk_domain=system.clk_domain
transition_latency=100000000

[system.fpga]
type=FpgaCPU
children=clk_domain dtb isa itb tracer
ACP=0
ModuleName=same_scratchpad_allocated_stream/2mm/obj_dir/Vour
Reconfigurable=0
Reconfiguration_time=0
baseaddress_control_fpga=3221225472
branchPred=Null
checker=Null
clk_domain=system.fpga.clk_domain
cpu_id=-1
default_p_state=UNDEFINED
dma_available=1
dma_size=20408
do_checkpoint_insts=true
do_quiesce=true
do_statistics_insts=true
dtb=system.fpga.dtb
eventq_index=0
fpga=true
fpga_bus_addr=281470681743360
function_trace=false
function_trace_start=0
interrupts=
isa=system.fpga.isa
itb=system.fpga.itb
max_insts_all_threads=0
max_insts_any_thread=0
max_loads_all_threads=0
max_loads_any_thread=0
noL1=0
numThreads=1
num_input_fpga=13
num_output_fpga=15
p_state_clk_gate_bins=20
p_state_clk_gate_max=1000000000000
p_state_clk_gate_min=1000
power_model=Null
profile=0
progress_interval=0
reg_lat=42000
show_address=0
simpoint_start_insts=
size_control_fpga=232
socket_id=0
switched_out=false
system=system
tracer=system.fpga.tracer
workload=
control_port=system.l2bus.master[0]
dcache_port=system.axibus.slave[1]
dma=system.axibus.slave[2]
icache_port=system.axibus.slave[0]

[system.fpga.clk_domain]
type=SrcClockDomain
children=voltage_domain
clock=6667
domain_id=-1
eventq_index=0
init_perf_level=0
voltage_domain=system.fpga.clk_domain.voltage_domain

[system.fpga.clk_domain.voltage_domain]
type=VoltageDomain
eventq_index=0
voltage=1.000000

[system.fpga.dtb]
type=X86TLB
children=walker
baseaddress_control_fpga=3221225472
eventq_index=0
fpga_bus_addr=2147483648
size=64
size_control_fpga=4096
walker=system.fpga.dtb.walker

[system.fpga.dtb.walker]
type=X86PagetableWalker
clk_domain=system.fpga.clk_domain
default_p_state=UNDEFINED
eventq_index=0
num_squash_per_cycle=4
p_state_clk_gate_bins=20
p_state_clk_gate_max=1000000000000
p_state_clk_gate_min=1000
power_model=Null
system=system

[system.fpga.isa]
type=X86ISA
eventq_index=0

[system.fpga.itb]
type=X86TLB
children=walker
baseaddress_control_fpga=3221225472
eventq_index=0
fpga_bus_addr=2147483648
size=64
size_control_fpga=4096
walker=system.fpga.itb.walker

[system.fpga.itb.walker]
type=X86PagetableWalker
clk_domain=system.fpga.clk_domain
default_p_state=UNDEFINED
eventq_index=0
num_squash_per_cycle=4
p_state_clk_gate_bins=20
p_state_clk_gate_max=1000000000000
p_state_clk_gate_min=1000
power_model=Null
system=system

[system.fpga.tracer]
type=ExeTracer
eventq_index=0

[system.l2bus]
type=CoherentXBar
children=snoop_filter
clk_domain=system.clk_domain
default_p_state=UNDEFINED
disenable_snoopFilter=0
eventq_index=0
forward_latency=0
frontend_latency=1
p_state_clk_gate_bins=20
p_state_clk_gate_max=1000000000000
p_state_clk_gate_min=1000
point_of_coherency=false
power_model=Null
response_latency=1
snoop_filter=system.l2bus.snoop_filter
snoop_response_latency=1
system=system
use_default_range=false
width=32
master=system.fpga.control_port system.l2cache.cpu_side
slave=system.cpu.icache.mem_side system.cpu.dcache.mem_side

[system.l2bus.snoop_filter]
type=SnoopFilter
eventq_index=0
lookup_latency=0
max_capacity=33554432
system=system

[system.l2cache]
type=Cache
children=tags
addr_ranges=0:2147483647:0:0:0:0
assoc=8
clk_domain=system.clk_domain
clusivity=mostly_incl
default_p_state=UNDEFINED
demand_mshr_reserve=1
disable=0
eventq_index=0
hit_latency=12
io_bypass=0
io_bypass_head=0
io_bypass_tail=0
is_read_only=false
max_miss_count=0
mshrs=20
p_state_clk_gate_bins=20
p_state_clk_gate_max=1000000000000
p_state_clk_gate_min=1000
power_model=Null
prefetch_on_access=false
prefetcher=Null
response_latency=12
sequential_access=false
size=131072
system=system
tags=system.l2cache.tags
tgts_per_mshr=12
write_buffers=8
writeback_clean=false
cpu_side=system.l2bus.master[1]
mem_side=system.membus.slave[0]

[system.l2cache.tags]
type=LRU
assoc=8
block_size=64
clk_domain=system.clk_domain
default_p_state=UNDEFINED
eventq_index=0
hit_latency=12
p_state_clk_gate_bins=20
p_state_clk_gate_max=1000000000000
p_state_clk_gate_min=1000
power_model=Null
sequential_access=false
size=131072

[system.mem_ctrl]
type=DRAMCtrl
IDD0=0.055000
IDD02=0.000000
IDD2N=0.032000
IDD2N2=0.000000
IDD2P0=0.000000
IDD2P02=0.000000
IDD2P1=0.032000
IDD2P12=0.000000
IDD3N=0.038000
IDD3N2=0.000000
IDD3P0=0.000000
IDD3P02=0.000000
IDD3P1=0.038000
IDD3P12=0.000000
IDD4R=0.157000
IDD4R2=0.000000
IDD4W=0.125000
IDD4W2=0.000000
IDD5=0.235000
IDD52=0.000000
IDD6=0.020000
IDD62=0.000000
VDD=1.500000
VDD2=0.000000
activation_limit=4
addr_mapping=RoRaBaCoCh
bank_groups_per_rank=0
banks_per_rank=8
burst_length=8
channels=1
clk_domain=system.clk_domain
conf_table_reported=true
default_p_state=UNDEFINED
device_bus_width=8
device_rowbuffer_size=1024
device_size=536870912
devices_per_rank=8
dll=true
eventq_index=0
in_addr_map=true
kvm_map=true
max_accesses_per_row=16
mem_sched_policy=frfcfs
min_writes_per_switch=16
null=false
p_state_clk_gate_bins=20
p_state_clk_gate_max=1000000000000
p_state_clk_gate_min=1000
page_policy=open_adaptive
power_model=Null
range=0:536870911:0:0:0:0
ranks_per_channel=2
read_buffer_size=32
static_backend_latency=10000
static_frontend_latency=10000
tBURST=5000
tCCD_L=0
tCK=1250
tCL=13750
tCS=2500
tRAS=35000
tRCD=13750
tREFI=7800000
tRFC=260000
tRP=13750
tRRD=6000
tRRD_L=0
tRTP=7500
tRTW=2500
tWR=15000
tWTR=7500
tXAW=30000
tXP=6000
tXPDLL=0
tXS=270000
tXSDLL=0
write_buffer_size=64
write_high_thresh_perc=85
write_low_thresh_perc=50
port=system.membus.master[2]

[system.membus]
type=CoherentXBar
children=snoop_filter
clk_domain=system.clk_domain
default_p_state=UNDEFINED
disenable_snoopFilter=0
eventq_index=0
forward_latency=4
frontend_latency=3
p_state_clk_gate_bins=20
p_state_clk_gate_max=1000000000000
p_state_clk_gate_min=1000
point_of_coherency=true
power_model=Null
response_latency=2
snoop_filter=system.membus.snoop_filter
snoop_response_latency=4
system=system
use_default_range=false
width=16
master=system.cpu.interrupts.pio system.cpu.interrupts.int_slave system.mem_ctrl.port
slave=system.l2cache.mem_side system.axibus.master[0] system.cpu.interrupts.int_master system.system_port

[system.membus.snoop_filter]
type=SnoopFilter
eventq_index=0
lookup_latency=1
max_capacity=33554432
system=system

